123-trimethylbenzene.sdf
  MOE2003           2D

  9  9  0  0  0  0  0  0  0  0999 V2000
    0.2740    1.1690    0.0000 C   0  0  0  0  0  0  0  0  0  0  0  0
    1.6750    0.7220    0.0000 C   0  0  0  0  0  0  0  0  0  0  0  0
   -0.7120    0.2670    0.0000 C   0  0  0  0  0  0  0  0  0  0  0  0
   -0.3950   -1.1710    0.0000 C   0  0  0  0  0  0  0  0  0  0  0  0
    0.8790   -1.5710    0.0000 C   0  0  0  0  0  0  0  0  0  0  0  0
    1.9660   -0.5820    0.0000 C   0  0  0  0  0  0  0  0  0  0  0  0
   -0.0400    2.6370    0.0000 C   0  0  0  0  0  0  0  0  0  0  0  0
   -2.1450    0.7160    0.0000 C   0  0  0  0  0  0  0  0  0  0  0  0
   -1.5000   -2.1880    0.0000 C   0  0  0  0  0  0  0  0  0  0  0  0
  1  2  1  0  0  0  0
  1  3  2  0  0  0  0
  1  7  1  0  0  0  0
  2  6  2  0  0  0  0
  3  4  1  0  0  0  0
  3  8  1  0  0  0  0
  4  5  2  0  0  0  0
  4  9  1  0  0  0  0
  5  6  1  0  0  0  0
M  END
>  <balabanJ>
2.47961

>  <apol>
23.8415

>  <dipole>
0

>  <dipoleX>
0

>  <dipoleY>
0

>  <dipoleZ>
0

>  <bpol>
13.1185

>  <a_IC>
20.6898

>  <a_ICM>
0.985228

>  <a_heavy>
9

>  <a_hyd>
9

>  <pmi>
401.468

>  <pmiX>
180.574

>  <pmiY>
220.893

>  <pmiZ>
0

>  <zagreb>
42

>  <vdw_area>
142.276

>  <b_rotN>
3

>  <b_rotR>
0.142857

>  <a_aro>
6

>  <a_count>
21

>  <b_1rotN>
3

>  <b_1rotR>
0.142857

>  <b_ar>
6

>  <b_count>
21

>  <a_acc>
0

>  <a_acid>
0

>  <a_base>
0

>  <Weight>
120.195

>  <VAdjEq>
0.764205

>  <VAdjMa>
4.16993

$$$$
1-ethyl-2-methylbenzene.sdf
  MOE2003           2D

  9  9  0  0  0  0  0  0  0  0999 V2000
    0.2620    0.5920    0.0000 C   0  0  0  0  0  0  0  0  0  0  0  0
    1.6550    0.1180    0.0000 C   0  0  0  0  0  0  0  0  0  0  0  0
   -0.7300   -0.3080    0.0000 C   0  0  0  0  0  0  0  0  0  0  0  0
   -0.4090   -1.7450    0.0000 C   0  0  0  0  0  0  0  0  0  0  0  0
    0.8560   -2.1700    0.0000 C   0  0  0  0  0  0  0  0  0  0  0  0
    1.9460   -1.1850    0.0000 C   0  0  0  0  0  0  0  0  0  0  0  0
    0.0360    2.0820    0.0000 C   0  0  0  0  0  0  0  0  0  0  0  0
   -1.4400    2.5220    0.0000 C   0  0  0  0  0  0  0  0  0  0  0  0
   -2.1760    0.0940    0.0000 C   0  0  0  0  0  0  0  0  0  0  0  0
  1  2  1  0  0  0  0
  1  3  2  0  0  0  0
  1  7  1  0  0  0  0
  2  6  2  0  0  0  0
  3  4  1  0  0  0  0
  3  9  1  0  0  0  0
  4  5  2  0  0  0  0
  5  6  1  0  0  0  0
  7  8  1  0  0  0  0
M  END
>  <balabanJ>
2.35456

>  <apol>
23.8415

>  <dipole>
0

>  <dipoleX>
0

>  <dipoleY>
0

>  <dipoleZ>
0

>  <bpol>
13.1185

>  <a_IC>
20.6898

>  <a_ICM>
0.985228

>  <a_heavy>
9

>  <a_hyd>
9

>  <pmi>
422.293

>  <pmiX>
178.212

>  <pmiY>
244.081

>  <pmiZ>
0

>  <zagreb>
40

>  <vdw_area>
142.276

>  <b_rotN>
3

>  <b_rotR>
0.142857

>  <a_aro>
6

>  <a_count>
21

>  <b_1rotN>
3

>  <b_1rotR>
0.142857

>  <b_ar>
6

>  <b_count>
21

>  <a_acc>
0

>  <a_acid>
0

>  <a_base>
0

>  <Weight>
120.195

>  <VAdjEq>
0.764205

>  <VAdjMa>
4.16993

$$$$
123-trimethylcyclohexane.sdf
  MOE2003           3D

  9  9  0  0  1  0  0  0  0  0999 V2000
   -0.0660    1.2020   -0.3170 C   0  0  3  0  0  0  0  0  0  0  0  0
    1.3310    1.0170    0.3050 C   0  0  0  0  0  0  0  0  0  0  0  0
   -1.0930    0.3500    0.4560 C   0  0  0  0  0  0  0  0  0  0  0  0
   -0.6530   -1.1280    0.4840 C   0  0  3  0  0  0  0  0  0  0  0  0
    0.6240   -1.3240   -0.3560 C   0  0  0  0  0  0  0  0  0  0  0  0
    1.7610   -0.4620    0.2270 C   0  0  0  0  0  0  0  0  0  0  0  0
   -0.4690    2.6880   -0.2490 C   0  0  0  0  0  0  0  0  0  0  0  0
   -2.4720    0.4630   -0.2200 C   0  0  0  0  0  0  0  0  0  0  0  0
   -1.6480   -2.2330    0.0000 C   0  0  0  0  0  0  0  0  0  0  0  0
  1  2  1  0  0  0  0
  1  3  1  0  0  0  0
  1  7  1  0  0  0  0
  2  6  1  0  0  0  0
  3  4  1  0  0  0  0
  3  8  1  0  0  0  0
  4  5  1  0  0  0  0
  4  9  1  0  0  0  0
  5  6  1  0  0  0  0
M  END
>  <balabanJ>
2.41332

>  <apol>
27.8423

>  <dipole>
0

>  <dipoleX>
0

>  <dipoleY>
0

>  <dipoleZ>
0

>  <bpol>
19.6777

>  <a_IC>
24.794

>  <a_ICM>
0.918296

>  <a_heavy>
9

>  <a_hyd>
9

>  <pmi>
411.68

>  <pmiX>
181.764

>  <pmiY>
218.96

>  <pmiZ>
10.9573

>  <zagreb>
42

>  <vdw_area>
142.276

>  <b_rotN>
3

>  <b_rotR>
0.111111

>  <a_aro>
0

>  <a_count>
27

>  <b_1rotN>
3

>  <b_1rotR>
0.111111

>  <b_ar>
0

>  <b_count>
27

>  <a_acc>
0

>  <a_acid>
0

>  <a_base>
0

>  <Weight>
126.243

>  <VAdjEq>
0.764205

>  <VAdjMa>
4.16993

$$$$
balaban_no25.sdf
  MOE2003           3D

  6  9  0  0  1  0  0  0  0  0999 V2000
   -0.5470   -0.6420   -0.7170 C   0  0  3  0  0  0  0  0  0  0  0  0
   -1.5820    0.1140    0.0940 C   0  0  0  0  0  0  0  0  0  0  0  0
   -0.2510    0.8260   -0.2650 C   0  0  0  0  0  0  0  0  0  0  0  0
    0.6620   -0.9790    0.1830 C   0  0  0  0  0  0  0  0  0  0  0  0
    0.4860    0.3270    1.0020 C   0  0  3  0  0  0  0  0  0  0  0  0
    1.2310    0.3540   -0.2980 C   0  0  3  0  0  0  0  0  0  0  0  0
  1  2  1  0  0  0  0
  1  3  1  0  0  0  0
  1  4  1  0  0  0  0
  2  3  1  0  0  0  0
  3  5  1  0  0  0  0
  3  6  1  0  0  0  0
  4  5  1  0  0  0  0
  4  6  1  0  0  0  0
  5  6  1  0  0  0  0
M  END
>  <balabanJ>
2.36215

>  <apol>
14.5608

>  <dipole>
0

>  <dipoleX>
0

>  <dipoleY>
0

>  <dipoleZ>
0

>  <bpol>
6.55924

>  <a_IC>
12

>  <a_ICM>
1

>  <a_heavy>
6

>  <a_hyd>
6

>  <pmi>
108.967

>  <pmiX>
60.7124

>  <pmiY>
27.6027

>  <pmiZ>
20.6523

>  <zagreb>
56

>  <vdw_area>
24.6427

>  <b_rotN>
0

>  <b_rotR>
0

>  <a_aro>
0

>  <a_count>
12

>  <b_1rotN>
0

>  <b_1rotR>
0

>  <b_ar>
0

>  <b_count>
15

>  <a_acc>
0

>  <a_acid>
0

>  <a_base>
0

>  <Weight>
78.114

>  <VAdjEq>
1

>  <VAdjMa>
4.16993

$$$$
balaban_no23.sdf
  MOE2003           3D

  6  9  0  0  0  0  0  0  0  0999 V2000
   -0.0740    1.7980   -0.2570 C   0  0  0  0  0  0  0  0  0  0  0  0
    0.9770    0.8050    0.3020 C   0  0  0  0  0  0  0  0  0  0  0  0
   -0.4920    0.4700    0.4050 C   0  0  0  0  0  0  0  0  0  0  0  0
    0.4920   -0.4700   -0.4050 C   0  0  0  0  0  0  0  0  0  0  0  0
    0.0740   -1.7980    0.2570 C   0  0  0  0  0  0  0  0  0  0  0  0
   -0.9770   -0.8050   -0.3020 C   0  0  0  0  0  0  0  0  0  0  0  0
  1  2  1  0  0  0  0
  1  3  1  0  0  0  0
  2  3  1  0  0  0  0
  2  4  1  0  0  0  0
  3  4  1  0  0  0  0
  3  6  1  0  0  0  0
  4  5  1  0  0  0  0
  4  6  1  0  0  0  0
  5  6  1  0  0  0  0
M  END
>  <balabanJ>
2.35444

>  <apol>
14.5608

>  <dipole>
0

>  <dipoleX>
0

>  <dipoleY>
0

>  <dipoleZ>
0

>  <bpol>
6.55924

>  <a_IC>
12

>  <a_ICM>
1

>  <a_heavy>
6

>  <a_hyd>
6

>  <pmi>
135.126

>  <pmiX>
28.8761

>  <pmiY>
98.5317

>  <pmiZ>
7.71774

>  <zagreb>
58

>  <vdw_area>
36.0341

>  <b_rotN>
0

>  <b_rotR>
0

>  <a_aro>
0

>  <a_count>
12

>  <b_1rotN>
0

>  <b_1rotR>
0

>  <b_ar>
0

>  <b_count>
15

>  <a_acc>
0

>  <a_acid>
0

>  <a_base>
0

>  <Weight>
78.114

>  <VAdjEq>
1

>  <VAdjMa>
4.16993

$$$$
13-dimethylcyclohexane.sdf
  MOE2003           3D

  8  8  0  0  1  0  0  0  0  0999 V2000
   -0.0170    1.0720   -0.4610 C   0  0  3  0  0  0  0  0  0  0  0  0
    1.4880    0.8340   -0.2260 C   0  0  0  0  0  0  0  0  0  0  0  0
   -0.8190    0.4240    0.6830 C   0  0  0  0  0  0  0  0  0  0  0  0
   -0.7080   -1.1110    0.5910 C   0  0  3  0  0  0  0  0  0  0  0  0
    0.5600   -1.5110   -0.1900 C   0  0  0  0  0  0  0  0  0  0  0  0
    1.7370   -0.6150    0.2380 C   0  0  0  0  0  0  0  0  0  0  0  0
   -0.2970    2.5850   -0.5040 C   0  0  0  0  0  0  0  0  0  0  0  0
   -1.9440   -1.6780   -0.1310 C   0  0  0  0  0  0  0  0  0  0  0  0
  1  2  1  0  0  0  0
  1  3  1  0  0  0  0
  1  7  1  0  0  0  0
  2  6  1  0  0  0  0
  3  4  1  0  0  0  0
  4  5  1  0  0  0  0
  4  8  1  0  0  0  0
  5  6  1  0  0  0  0
M  END
>  <balabanJ>
2.23064

>  <apol>
24.7487

>  <dipole>
0

>  <dipoleX>
0

>  <dipoleY>
0

>  <dipoleZ>
0

>  <bpol>
17.4913

>  <a_IC>
22.0391

>  <a_ICM>
0.918296

>  <pmi>
329.653

>  <pmiX>
127.131

>  <pmiY>
185.187

>  <pmiZ>
17.3353

>  <zagreb>
36

>  <vdw_area>
126.468

>  <b_rotN>
2

>  <b_rotR>
0.0833333

>  <a_aro>
0

>  <a_count>
24

>  <b_1rotN>
2

>  <b_1rotR>
0.0833333

>  <b_ar>
0

>  <b_count>
24

>  <a_acc>
0

>  <a_acid>
0

>  <a_base>
0

>  <Weight>
112.216

>  <VAdjEq>
0.811278

>  <VAdjMa>
4

$$$$
124-trimethylcyclohexane.sdf
  MOE2003           3D

  9  9  0  0  1  0  0  0  0  0999 V2000
   -0.0660    1.2020   -0.3170 C   0  0  3  0  0  0  0  0  0  0  0  0
    1.3310    1.0170    0.3050 C   0  0  0  0  0  0  0  0  0  0  0  0
   -1.0930    0.3500    0.4560 C   0  0  3  0  0  0  0  0  0  0  0  0
   -0.6530   -1.1280    0.4840 C   0  0  0  0  0  0  0  0  0  0  0  0
    0.6240   -1.3240   -0.3560 C   0  0  3  0  0  0  0  0  0  0  0  0
    1.7610   -0.4620    0.2270 C   0  0  0  0  0  0  0  0  0  0  0  0
   -0.4690    2.6880   -0.2490 C   0  0  0  0  0  0  0  0  0  0  0  0
    1.0370   -2.8070   -0.3300 C   0  0  0  0  0  0  0  0  0  0  0  0
   -2.4720    0.4630   -0.2200 C   0  0  0  0  0  0  0  0  0  0  0  0
  1  2  1  0  0  0  0
  1  3  1  0  0  0  0
  1  7  1  0  0  0  0
  2  6  1  0  0  0  0
  3  4  1  0  0  0  0
  3  9  1  0  0  0  0
  4  5  1  0  0  0  0
  5  6  1  0  0  0  0
  5  8  1  0  0  0  0
M  END
>  <balabanJ>
2.34623

>  <apol>
27.8423

>  <dipole>
0

>  <dipoleX>
0

>  <dipoleY>
0

>  <dipoleZ>
0

>  <bpol>
19.6777

>  <a_IC>
24.794

>  <a_ICM>
0.918296

>  <pmi>
438.236

>  <pmiX>
171.68

>  <pmiY>
254.145

>  <pmiZ>
12.4106

>  <zagreb>
42

>  <vdw_area>
142.276

>  <b_rotN>
3

>  <b_rotR>
0.111111

>  <a_aro>
0

>  <a_count>
27

>  <b_1rotN>
3

>  <b_1rotR>
0.111111

>  <b_ar>
0

>  <b_count>
27

>  <a_acc>
0

>  <a_acid>
0

>  <a_base>
0

>  <Weight>
126.243

>  <VAdjEq>
0.764205

>  <VAdjMa>
4.16993

$$$$
anilin.sdf
  MOE2003           3D

 20 20  0  0  0  0  0  0  0  0999 V2000
    1.5940    0.6070    0.1180 C   0  0  0  0  0  0  0  0  0  0  0  0
    0.2710    1.3370   -0.1950 C   0  0  0  0  0  0  0  0  0  0  0  0
   -0.9100    0.5850    0.4550 C   0  0  0  0  0  0  0  0  0  0  0  0
   -0.9690   -0.8620   -0.0820 C   0  0  0  0  0  0  0  0  0  0  0  0
    0.3550   -1.5910    0.2300 C   0  0  0  0  0  0  0  0  0  0  0  0
    1.5350   -0.8380   -0.4200 C   0  0  0  0  0  0  0  0  0  0  0  0
   -2.1690    1.2910    0.1600 N   0  0  0  0  0  0  0  0  0  0  0  0
    1.7560    0.5880    1.2070 H   0  0  0  0  0  0  0  0  0  0  0  0
    2.4300    1.1420   -0.3590 H   0  0  0  0  0  0  0  0  0  0  0  0
    0.1260    1.3810   -1.2850 H   0  0  0  0  0  0  0  0  0  0  0  0
    0.3140    2.3620    0.2040 H   0  0  0  0  0  0  0  0  0  0  0  0
   -0.7650    0.5620    1.5470 H   0  0  0  0  0  0  0  0  0  0  0  0
   -1.1300   -0.8450   -1.1710 H   0  0  0  0  0  0  0  0  0  0  0  0
   -1.8020   -1.3990    0.3960 H   0  0  0  0  0  0  0  0  0  0  0  0
    0.5030   -1.6350    1.3200 H   0  0  0  0  0  0  0  0  0  0  0  0
    0.3120   -2.6170   -0.1680 H   0  0  0  0  0  0  0  0  0  0  0  0
    2.4770   -1.3570   -0.1820 H   0  0  0  0  0  0  0  0  0  0  0  0
    1.4020   -0.8190   -1.5120 H   0  0  0  0  0  0  0  0  0  0  0  0
   -2.9940    0.7910    0.6450 H   0  0  0  0  0  0  0  0  0  0  0  0
   -2.3370    1.3150   -0.9070 H   0  0  0  0  0  0  0  0  0  0  0  0
  1  2  1  0  0  0  0
  1  6  1  0  0  0  0
  1  8  1  0  0  0  0
  1  9  1  0  0  0  0
  2  3  1  0  0  0  0
  2 10  1  0  0  0  0
  2 11  1  0  0  0  0
  3  4  1  0  0  0  0
  3  7  1  0  0  0  0
  3 12  1  0  0  0  0
  4  5  1  0  0  0  0
  4 13  1  0  0  0  0
  4 14  1  0  0  0  0
  5  6  1  0  0  0  0
  5 15  1  0  0  0  0
  5 16  1  0  0  0  0
  6 17  1  0  0  0  0
  6 18  1  0  0  0  0
  7 19  1  0  0  0  0
  7 20  1  0  0  0  0
M  END
>  <balabanJ>
2.12292

>  <apol>
20.3283

>  <dipole>
0

>  <dipoleX>
0

>  <dipoleY>
0

>  <dipoleZ>
0

>  <bpol>
13.5517

>  <a_IC>
22.8231

>  <a_ICM>
1.14115

>  <pmi>
331.1

>  <pmiX>
185.146

>  <pmiY>
127.128

>  <pmiZ>
18.8263

>  <zagreb>
30

>  <b_rotN>
1

>  <b_rotR>
0.05

>  <a_aro>
0

>  <a_count>
20

>  <b_1rotN>
1

>  <b_1rotR>
0.05

>  <b_ar>
0

>  <b_count>
20

>  <a_acc>
1

>  <a_acid>
0

>  <a_base>
0

>  <Weight>
99.177

>  <VAdjEq>
0.863121

>  <VAdjMa>
3.80735

$$$$
benzene.sdf
  MOE2003           3D

  6  6  0  0  0  0  0  0  0  0999 V2000
   -1.0920    0.1890    0.8620 C   0  0  0  0  0  0  0  0  0  0  0  0
   -0.1070   -0.8800    1.0890 C   0  0  0  0  0  0  0  0  0  0  0  0
    0.9200   -1.0310    0.2490 C   0  0  0  0  0  0  0  0  0  0  0  0
    1.0660   -0.1280   -0.9040 C   0  0  0  0  0  0  0  0  0  0  0  0
    0.1720    0.8420   -1.1100 C   0  0  0  0  0  0  0  0  0  0  0  0
   -0.9590    1.0080   -0.1850 C   0  0  0  0  0  0  0  0  0  0  0  0
  1  2  1  0  0  0  0
  1  6  2  0  0  0  0
  2  3  2  0  0  0  0
  3  4  1  0  0  0  0
  4  5  2  0  0  0  0
  5  6  1  0  0  0  0
M  END
>  <balabanJ>
2.11765

>  <apol>
14.5608

>  <bpol>
6.55924

>  <pmi>
142.029

>  <pmiX>
49.6767

>  <pmiY>
43.4137

>  <pmiZ>
48.9389

>  <zagreb>
24

>  <b_rotN>
0

>  <b_rotR>
0

>  <a_aro>
6

>  <b_1rotN>
0

>  <b_1rotR>
0

>  <b_ar>
6

>  <Weight>
78.114

>  <VAdjEq>
0.918296

>  <VAdjMa>
3.58496

$$$$
cyclohexane
  MOE2003           3D

 18 18  0  0  0  0  0  0  0  0999 V2000
    0.0150    1.4720   -0.1500 C   0  0  0  0  0  0  0  0  0  0  0  0
    1.2610    0.7000    0.3320 C   0  0  0  0  0  0  0  0  0  0  0  0
   -1.2640    0.7200    0.2730 C   0  0  0  0  0  0  0  0  0  0  0  0
   -1.2610   -0.7000   -0.3320 C   0  0  0  0  0  0  0  0  0  0  0  0
   -0.0150   -1.4720    0.1500 C   0  0  0  0  0  0  0  0  0  0  0  0
    1.2640   -0.7200   -0.2730 C   0  0  0  0  0  0  0  0  0  0  0  0
    0.0130    2.4790    0.2950 H   0  0  0  0  0  0  0  0  0  0  0  0
    0.0420    1.5650   -1.2470 H   0  0  0  0  0  0  0  0  0  0  0  0
    2.1700    1.2350    0.0150 H   0  0  0  0  0  0  0  0  0  0  0  0
    1.2500    0.6320    1.4300 H   0  0  0  0  0  0  0  0  0  0  0  0
    1.3050   -0.6520   -1.3710 H   0  0  0  0  0  0  0  0  0  0  0  0
    2.1480   -1.2690    0.0860 H   0  0  0  0  0  0  0  0  0  0  0  0
   -0.0410   -1.5650    1.2470 H   0  0  0  0  0  0  0  0  0  0  0  0
   -0.0130   -2.4790   -0.2950 H   0  0  0  0  0  0  0  0  0  0  0  0
   -1.2500   -0.6320   -1.4300 H   0  0  0  0  0  0  0  0  0  0  0  0
   -2.1700   -1.2350   -0.0150 H   0  0  0  0  0  0  0  0  0  0  0  0
   -1.3050    0.6520    1.3710 H   0  0  0  0  0  0  0  0  0  0  0  0
   -2.1480    1.2690   -0.0860 H   0  0  0  0  0  0  0  0  0  0  0  0
  1  2  1  0  0  0  0
  1  3  1  0  0  0  0
  1  7  1  0  0  0  0
  1  8  1  0  0  0  0
  2  6  1  0  0  0  0
  2  9  1  0  0  0  0
  2 10  1  0  0  0  0
  3  4  1  0  0  0  0
  3 17  1  0  0  0  0
  3 18  1  0  0  0  0
  4  5  1  0  0  0  0
  4 15  1  0  0  0  0
  4 16  1  0  0  0  0
  5  6  1  0  0  0  0
  5 13  1  0  0  0  0
  5 14  1  0  0  0  0
  6 11  1  0  0  0  0
  6 12  1  0  0  0  0
M  END
>  <balabanJ>
2

>  <apol>
18.5615

>  <bpol>
13.1185

>  <pmi>
219.766

>  <pmiX>
101.965

>  <pmiY>
101.585

>  <pmiZ>
16.2162

>  <zagreb>
24

>  <b_rotN>
0

>  <b_rotR>
0

>  <a_aro>
0

>  <b_1rotN>
0

>  <b_1rotR>
0

>  <b_ar>
0

>  <Weight>
84.162

>  <VAdjEq>
0.918296

>  <VAdjMa>
3.58496

$$$$
benzene
  MOE2003           2D

 12 12  0  0  0  0  0  0  0  0999 V2000
    1.2940    0.5440    0.0000 C   0  0  0  0  0  0  0  0  0  0  0  0
    0.0980    1.4010    0.0000 C   0  0  0  0  0  0  0  0  0  0  0  0
   -1.1180    0.8490    0.0000 C   0  0  0  0  0  0  0  0  0  0  0  0
   -1.2620   -0.6150    0.0000 C   0  0  0  0  0  0  0  0  0  0  0  0
    1.1640   -0.7860    0.0000 C   0  0  0  0  0  0  0  0  0  0  0  0
   -0.1760   -1.3930    0.0000 C   0  0  0  0  0  0  0  0  0  0  0  0
    2.2850    0.9970    0.0000 H   0  0  0  0  0  0  0  0  0  0  0  0
    0.2090    2.4850    0.0000 H   0  0  0  0  0  0  0  0  0  0  0  0
   -2.0060    1.4810    0.0000 H   0  0  0  0  0  0  0  0  0  0  0  0
   -2.2560   -1.0620    0.0000 H   0  0  0  0  0  0  0  0  0  0  0  0
   -0.2790   -2.4780    0.0000 H   0  0  0  0  0  0  0  0  0  0  0  0
    2.0470   -1.4230    0.0000 H   0  0  0  0  0  0  0  0  0  0  0  0
  1  2  1  0  0  0  0
  1  5  2  0  0  0  0
  1  7  1  0  0  0  0
  2  3  2  0  0  0  0
  2  8  1  0  0  0  0
  3  4  1  0  0  0  0
  3  9  1  0  0  0  0
  4  6  2  0  0  0  0
  4 10  1  0  0  0  0
  5  6  1  0  0  0  0
  5 12  1  0  0  0  0
  6 11  1  0  0  0  0
M  END
>  <balabanJ>
2.11765

>  <apol>
14.5608

>  <bpol>
6.55924

>  <pmi>
179.673

>  <pmiX>
89.8105

>  <pmiY>
89.8623

>  <pmiZ>
0

>  <zagreb>
24

>  <b_rotN>
0

>  <b_rotR>
0

>  <a_aro>
6

>  <b_1rotN>
0

>  <b_1rotR>
0

>  <b_ar>
6

>  <Weight>
78.114

>  <VAdjEq>
0.918296

>  <VAdjMa>
3.58496

$$$$
1,2,3-trimethylcyclohexane
  MOE2003           3D

 24 24  0  0  1  0  0  0  0  0999 V2000
    1.9290    0.9760    0.4310 C   0  0  0  0  0  0  0  0  0  0  0  0
    0.8130    1.7130   -0.3340 C   0  0  0  0  0  0  0  0  0  0  0  0
   -0.5640    1.1780    0.1120 C   0  0  3  0  0  0  0  0  0  0  0  0
   -0.6570   -0.3400   -0.1820 C   0  0  0  0  0  0  0  0  0  0  0  0
    1.8450   -0.5330    0.1350 C   0  0  0  0  0  0  0  0  0  0  0  0
    0.4710   -1.0750    0.5820 C   0  0  3  0  0  0  0  0  0  0  0  0
    2.9110    1.3610    0.1120 H   0  0  0  0  0  0  0  0  0  0  0  0
    0.9380    1.5580   -1.4160 H   0  0  0  0  0  0  0  0  0  0  0  0
    1.9800   -0.7100   -0.9430 H   0  0  0  0  0  0  0  0  0  0  0  0
   -1.6750    1.9780   -0.6020 C   0  0  0  0  0  0  0  0  0  0  0  0
   -2.0460   -0.8980    0.2020 C   0  0  0  0  0  0  0  0  0  0  0  0
    0.4300   -2.6020    0.3530 C   0  0  0  0  0  0  0  0  0  0  0  0
   -1.4640    3.0540   -0.5150 H   0  0  0  0  0  0  0  0  0  0  0  0
   -1.7100    1.7020   -1.6670 H   0  0  0  0  0  0  0  0  0  0  0  0
   -2.6500    1.7790   -0.1360 H   0  0  0  0  0  0  0  0  0  0  0  0
   -2.1060   -1.9680   -0.0380 H   0  0  0  0  0  0  0  0  0  0  0  0
   -2.2200   -0.7530    1.2790 H   0  0  0  0  0  0  0  0  0  0  0  0
   -2.8330   -0.3850   -0.3680 H   0  0  0  0  0  0  0  0  0  0  0  0
   -0.4350   -3.0430    0.8700 H   0  0  0  0  0  0  0  0  0  0  0  0
    0.3670   -2.8170   -0.7240 H   0  0  0  0  0  0  0  0  0  0  0  0
    1.3440   -3.0590    0.7600 H   0  0  0  0  0  0  0  0  0  0  0  0
    2.6430   -1.0510    0.6890 H   0  0  0  0  0  0  0  0  0  0  0  0
    1.8080    1.1460    1.5120 H   0  0  0  0  0  0  0  0  0  0  0  0
    0.8790    2.7890   -0.1120 H   0  0  0  0  0  0  0  0  0  0  0  0
  1  2  1  0  0  0  0
  1  5  1  0  0  0  0
  1  7  1  0  0  0  0
  1 23  1  0  0  0  0
  2  3  1  0  0  0  0
  2  8  1  0  0  0  0
  2 24  1  0  0  0  0
  3  4  1  0  0  0  0
  3 10  1  0  0  0  0
  4  6  1  0  0  0  0
  4 11  1  0  0  0  0
  5  6  1  0  0  0  0
  5  9  1  0  0  0  0
  5 22  1  0  0  0  0
  6 12  1  0  0  0  0
 10 13  1  0  0  0  0
 10 14  1  0  0  0  0
 10 15  1  0  0  0  0
 11 16  1  0  0  0  0
 11 17  1  0  0  0  0
 11 18  1  0  0  0  0
 12 19  1  0  0  0  0
 12 20  1  0  0  0  0
 12 21  1  0  0  0  0
M  END
>  <balabanJ>
2.41332

>  <apol>
27.8423

>  <bpol>
19.6777

>  <pmi>
556.074

>  <pmiX>
247.452

>  <pmiY>
281.879

>  <pmiZ>
26.7424

>  <zagreb>
42

>  <b_rotN>
3

>  <b_rotR>
0.111111

>  <a_aro>
0

>  <b_1rotN>
3

>  <b_1rotR>
0.111111

>  <b_ar>
0

>  <Weight>
126.243

>  <VAdjEq>
0.764205

>  <VAdjMa>
4.16993

$$$$
1,2,3-trimethylbenzene
  MOE2003           3D

 21 21  0  0  0  0  0  0  0  0999 V2000
    2.2220    0.8410    0.0780 C   0  0  0  0  0  0  0  0  0  0  0  0
    1.0820    1.7330   -0.1730 C   0  0  0  0  0  0  0  0  0  0  0  0
   -0.1630    1.2480   -0.2210 C   0  0  0  0  0  0  0  0  0  0  0  0
   -0.3940   -0.1980   -0.0110 C   0  0  0  0  0  0  0  0  0  0  0  0
    2.0100   -0.4630    0.2650 C   0  0  0  0  0  0  0  0  0  0  0  0
    0.6450   -1.0130    0.2120 C   0  0  0  0  0  0  0  0  0  0  0  0
    3.2330    1.2460    0.1150 H   0  0  0  0  0  0  0  0  0  0  0  0
    1.2770    2.7950   -0.3130 H   0  0  0  0  0  0  0  0  0  0  0  0
    2.8560   -1.1230    0.4520 H   0  0  0  0  0  0  0  0  0  0  0  0
   -1.3250    2.1810   -0.4430 C   0  0  0  0  0  0  0  0  0  0  0  0
   -1.7940   -0.7520   -0.0900 C   0  0  0  0  0  0  0  0  0  0  0  0
    0.4480   -2.4870    0.4440 C   0  0  0  0  0  0  0  0  0  0  0  0
   -1.0210    3.2300   -0.3170 H   0  0  0  0  0  0  0  0  0  0  0  0
   -1.7140    2.0460   -1.4630 H   0  0  0  0  0  0  0  0  0  0  0  0
   -2.1220    1.9620    0.2820 H   0  0  0  0  0  0  0  0  0  0  0  0
   -1.7910   -1.7600   -0.5290 H   0  0  0  0  0  0  0  0  0  0  0  0
   -2.2240   -0.8000    0.9210 H   0  0  0  0  0  0  0  0  0  0  0  0
   -2.4300   -0.1140   -0.7190 H   0  0  0  0  0  0  0  0  0  0  0  0
   -0.3740   -2.6550    1.1560 H   0  0  0  0  0  0  0  0  0  0  0  0
    0.2160   -2.9870   -0.5080 H   0  0  0  0  0  0  0  0  0  0  0  0
    1.3650   -2.9290    0.8600 H   0  0  0  0  0  0  0  0  0  0  0  0
  1  2  1  0  0  0  0
  1  5  2  0  0  0  0
  1  7  1  0  0  0  0
  2  3  2  0  0  0  0
  2  8  1  0  0  0  0
  3  4  1  0  0  0  0
  3 10  1  0  0  0  0
  4  6  2  0  0  0  0
  4 11  1  0  0  0  0
  5  6  1  0  0  0  0
  5  9  1  0  0  0  0
  6 12  1  0  0  0  0
 10 13  1  0  0  0  0
 10 14  1  0  0  0  0
 10 15  1  0  0  0  0
 11 16  1  0  0  0  0
 11 17  1  0  0  0  0
 11 18  1  0  0  0  0
 12 19  1  0  0  0  0
 12 20  1  0  0  0  0
 12 21  1  0  0  0  0
M  END
>  <balabanJ>
2.47961

>  <apol>
23.8415

>  <bpol>
13.1185

>  <pmi>
516.309

>  <pmiX>
228.9

>  <pmiY>
273.519

>  <pmiZ>
13.8903

>  <zagreb>
42

>  <b_rotN>
3

>  <b_rotR>
0.142857

>  <a_aro>
6

>  <b_1rotN>
3

>  <b_1rotR>
0.142857

>  <b_ar>
6

>  <Weight>
120.195

>  <VAdjEq>
0.764205

>  <VAdjMa>
4.16993

$$$$
PFBHA-ethanal
  MOE2003           3D

 22 22  0  0  0  0  0  0  0  0999 V2000
    3.3380    0.7500    0.3350 C   0  0  0  0  0  0  0  0  0  0  0  0
    2.3550    1.5610   -0.0630 C   0  0  0  0  0  0  0  0  0  0  0  0
    1.0500    1.0030   -0.4500 C   0  0  0  0  0  0  0  0  0  0  0  0
    0.8360   -0.3160   -0.3980 C   0  0  0  0  0  0  0  0  0  0  0  0
    1.9260   -1.2060    0.0370 C   0  0  0  0  0  0  0  0  0  0  0  0
    3.1120   -0.7020    0.3860 C   0  0  0  0  0  0  0  0  0  0  0  0
   -0.4890   -0.8960   -0.8080 C   0  0  0  0  0  0  0  0  0  0  0  0
   -3.4360   -0.6280    0.1470 C   0  0  0  0  0  0  0  0  0  0  0  0
   -3.0620    0.7570    0.6060 C   0  0  0  0  0  0  0  0  0  0  0  0
   -1.3230   -1.0060    0.3500 O   0  0  0  0  0  0  0  0  0  0  0  0
   -2.5710   -1.5510    0.0030 N   0  0  0  0  0  0  0  0  0  0  0  0
   -0.3390   -1.8970   -1.2420 H   0  0  0  0  0  0  0  0  0  0  0  0
   -0.9760   -0.2530   -1.5560 H   0  0  0  0  0  0  0  0  0  0  0  0
   -4.4760   -0.8470   -0.0940 H   0  0  0  0  0  0  0  0  0  0  0  0
   -3.9740    1.3510    0.7640 H   0  0  0  0  0  0  0  0  0  0  0  0
   -2.5030    0.7070    1.5530 H   0  0  0  0  0  0  0  0  0  0  0  0
   -2.4430    1.2510   -0.1570 H   0  0  0  0  0  0  0  0  0  0  0  0
    1.7290   -2.5200    0.0860 F   0  0  0  0  0  0  0  0  0  0  0  0
    4.0910   -1.5120    0.7790 F   0  0  0  0  0  0  0  0  0  0  0  0
    4.5180    1.2530    0.6850 F   0  0  0  0  0  0  0  0  0  0  0  0
    2.5540    2.8750   -0.1110 F   0  0  0  0  0  0  0  0  0  0  0  0
    0.0830    1.8230   -0.8510 F   0  0  0  0  0  0  0  0  0  0  0  0
  1  2  1  0  0  0  0
  1  6  2  0  0  0  0
  1 20  1  0  0  0  0
  2  3  2  0  0  0  0
  2 21  1  0  0  0  0
  3  4  1  0  0  0  0
  3 22  1  0  0  0  0
  4  5  2  0  0  0  0
  4  7  1  0  0  0  0
  5  6  1  0  0  0  0
  5 18  1  0  0  0  0
  6 19  1  0  0  0  0
  7 10  1  0  0  0  0
  7 12  1  0  0  0  0
  7 13  1  0  0  0  0
  8  9  1  0  0  0  0
  8 11  2  0  0  0  0
  8 14  1  0  0  0  0
  9 15  1  0  0  0  0
  9 16  1  0  0  0  0
  9 17  1  0  0  0  0
 10 11  1  0  0  0  0
M  END
>  <balabanJ>
2.61531

>  <apol>
24.5278

>  <bpol>
14.4902

>  <pmi>
2080.91

>  <pmiX>
1451.83

>  <pmiY>
566.218

>  <pmiZ>
62.8624

>  <zagreb>
76

>  <b_rotN>
5

>  <b_rotR>
0.227273

>  <a_aro>
6

>  <b_1rotN>
4

>  <b_1rotR>
0.181818

>  <b_ar>
6

>  <Weight>
239.143

>  <VAdjEq>
0.543564

>  <VAdjMa>
5

$$$$
